12

N 2.083868 -0.173421 0.129989
B 1.599550 1.076608 -0.239886
N -2.040930 0.189308 0.173350
B -1.670256 -1.111722 -0.148025
H -2.436117 0.449546 1.064673
H 1.812306 2.017799 0.466511
H -1.833314 -1.979974 0.658198
H 1.921903 -1.007797 -0.414426
H 2.606009 -0.339185 0.977454
H -1.914185 0.969483 -0.454616
H 0.989736 1.173635 -1.263158
H -1.206633 -1.330196 -1.228714
