12

N 3.95330 -0.44671 -0.01614
B 3.17579 0.70557 0.02381
N -3.85897 0.49790 -0.01321
B -3.29557 -0.77465 0.01350
H -4.85406 0.66054 -0.05753
H 3.71821 1.77002 -0.03476
H 1.98743 0.60905 0.12601
H 3.56704 -1.37804 0.02873
H 4.95858 -0.42942 -0.09818
H -3.31166 1.34528 0.00600
H -2.10765 -0.86517 0.06963
H -4.01933 -1.72524 -0.02103
