12

N -1.83032 -0.61415 -0.06126
B -1.65186 0.75138 -0.26691
N 1.83026 -0.61503 0.06041
B 1.65162 0.75067 0.26702
H 2.39923 -0.99354 -0.68131
H -2.19725 1.52493 0.46285
H -0.97490 1.11728 -1.18131
H -1.39779 -1.31747 -0.64128
H -2.40057 -0.99376 0.67990
H 1.39842 -1.31868 0.64067
H 0.97597 1.11571 1.18244
H 2.19569 1.52447 -0.46332
