12

N -1.61570 -0.67891 0.00735
B -2.19634 0.57244 -0.15501
N 1.41924 0.39130 0.38260
B 2.44169 -0.21565 -0.34725
H 1.25170 0.20890 1.36193
H -3.38194 0.68585 -0.06852
H -1.49181 1.51285 -0.38595
H -0.62034 -0.83261 -0.05000
H -2.14834 -1.51133 0.21203
H 0.82186 1.11734 0.01142
H 2.59932 0.08848 -1.49104
H 3.11800 -1.04020 0.19173
