12

N 1.58925 -0.57552 -0.03019
B 0.90756 0.69075 0.00476
N -1.58923 -0.57549 0.03012
B -0.90756 0.69077 -0.00477
H -2.59607 -0.58881 0.01154
H 1.52015 1.70903 -0.10139
H 0.04765 0.85984 0.97124
H 1.18706 -1.40531 0.37951
H 2.59608 -0.58875 -0.01081
H -1.18724 -1.40534 -0.37965
H -0.04761 0.85972 -0.97123
H -1.52015 1.70905 0.10130
