12

N 1.223638 0.173255 0.736661
B 2.084106 0.123477 -0.463863
N 0.690225 -2.310204 0.472892
B 0.386625 -1.041255 -0.154907
H 1.615717 -2.715663 0.352077
H 2.997081 -0.640148 -0.430519
H 2.115594 1.073702 -1.166368
H 0.641260 0.994451 0.884427
H 1.506159 -0.231823 1.626052
H -0.000938 -3.034517 0.533274
H -0.761323 -0.721987 -0.163825
H 0.927227 -0.844954 -1.277065
