12

N 1.212126 0.163057 0.735445
B 2.071824 0.113220 -0.477799
N 0.688580 -2.308164 0.482485
B 0.391446 -1.030565 -0.133791
H 1.616711 -2.705278 0.370165
H 2.993482 -0.641061 -0.434345
H 2.106678 1.067991 -1.169720
H 0.636179 0.990594 0.883067
H 1.512048 -0.223409 1.630584
H 0.005782 -3.043787 0.498808
H -0.759404 -0.723869 -0.176683
H 0.949919 -0.834394 -1.259380
