12

N 1.314739 0.271313 0.761629
B 2.161943 0.189884 -0.382333
N 0.682623 -2.340703 0.370380
B 0.288485 -1.156360 -0.314085
H 1.627000 -2.729299 0.275383
H 3.005483 -0.634865 -0.400148
H 2.158238 1.085630 -1.153729
H 0.725334 1.070721 0.915613
H 1.477613 -0.254216 1.601351
H 0.004988 -2.984786 0.771594
H -0.807914 -0.773556 -0.119803
H 0.786839 -0.919428 -1.377015
