12

N 1.254225 0.202281 0.741596
B 2.114588 0.149090 -0.430028
N 0.692305 -2.317219 0.444448
B 0.367150 -1.073047 -0.210132
H 1.615203 -2.735640 0.311398
H 3.004413 -0.637936 -0.420342
H 2.136182 1.085179 -1.159003
H 0.659633 1.009781 0.890311
H 1.492519 -0.249267 1.615249
H -0.012225 -3.012512 0.621026
H -0.769910 -0.724372 -0.136075
H 0.871287 -0.872002 -1.319612
