12

N 0.64404 -0.62662 -0.33844
B 1.60491 0.65894 0.22034
N -1.63130 0.37197 -0.12260
B -0.67290 -0.51037 0.35718
H -1.44046 1.05406 -0.84311
H 1.15745 1.63273 -0.34379
H 2.73175 0.36979 -0.10744
H 1.12776 -1.49104 -0.11288
H 0.60349 -0.54690 -1.35154
H -2.49595 0.53295 0.36944
H -0.87364 -1.19491 1.30911
H 1.44039 0.68307 1.41985
