12

N 1.44047 -0.56370 0.03737
B 2.47808 0.36538 -0.03274
N -1.60028 0.69251 0.00304
B -2.28065 -0.51841 -0.01920
H -0.59051 0.75675 -0.01518
H 2.89260 0.69272 -1.10433
H 2.91658 0.81978 0.98166
H 1.06339 -0.91261 0.90724
H 1.04159 -1.01626 -0.77321
H -2.06784 1.58653 0.03907
H -3.47546 -0.52679 0.00482
H -1.64888 -1.53661 -0.06328
