12

N 1.61146 -0.67397 -0.13251
B 2.20402 0.53604 0.20155
N -1.46554 0.52197 -0.27011
B -2.38267 -0.35459 0.30866
H -0.81748 1.08605 0.26302
H 1.50649 1.49806 0.36784
H 3.39120 0.60706 0.31616
H 2.13714 -1.52268 -0.28095
H 0.61079 -0.78331 -0.23411
H -1.43815 0.71820 -1.26062
H -3.14086 -0.94890 -0.39867
H -2.37726 -0.49772 1.49466
