12

N 0.90012 -0.70848 -0.11614
B 1.22905 0.82224 -0.09224
N -1.62826 0.05278 -0.23410
B -0.40318 -0.05669 0.53789
H -1.64884 0.40433 -1.18286
H 1.14792 1.33344 -1.17198
H 2.13183 1.12573 0.63053
H 1.45698 -1.30538 0.48272
H 0.76460 -1.13014 -1.02683
H -2.40826 -0.54083 -0.01935
H -0.48752 -0.34274 1.69717
H 0.16860 1.20846 0.57579
