12

N 2.395180 0.567277 0.416692
B 2.385884 -0.753935 0.755768
N -0.343911 -1.263056 -1.095849
B 0.082720 -1.651681 0.219416
H 0.198889 -1.402313 -1.915234
H 3.065725 -1.186837 1.606292
H 1.698949 -1.435812 0.135547
H 1.748137 0.981936 -0.260630
H 3.126638 1.173871 0.706336
H -0.919157 -0.445466 -1.183275
H -0.217999 -0.950165 1.104556
H 0.211082 -2.811569 0.463778
