12

N 2.387472 0.561956 0.406252
B 2.351803 -0.756542 0.756610
N -0.333072 -1.269050 -1.098358
B 0.113782 -1.649894 0.216618
H 0.220282 -1.341663 -1.903215
H 3.021874 -1.190624 1.613410
H 1.697431 -1.461295 0.115476
H 1.745976 0.986708 -0.268471
H 3.124744 1.162404 0.704187
H -0.941961 -0.485693 -1.176164
H -0.158527 -0.933624 1.104787
H 0.202333 -2.800433 0.482265
