12

N 2.318911 0.525929 0.330973
B 2.040705 -0.750063 0.805401
N -0.234871 -1.295445 -1.115783
B 0.375020 -1.660904 0.159869
H 0.363472 -0.848999 -1.809009
H 2.663584 -1.211995 1.679234
H 1.702360 -1.689871 -0.050784
H 1.721749 1.045772 -0.303885
H 3.127237 1.050614 0.654617
H -1.117556 -0.848692 -1.127208
H 0.374949 -0.810539 1.100028
H 0.096578 -2.683557 0.629944
