12

N 2.333513 0.524714 0.333166
B 2.113234 -0.774791 0.762507
N -0.257195 -1.311012 -1.115924
B 0.331216 -1.637390 0.197031
H 0.370033 -0.917116 -1.819084
H 2.714919 -1.217135 1.663239
H 1.686801 -1.639679 -0.025020
H 1.730848 1.020115 -0.323352
H 3.111484 1.082140 0.689146
H -1.101585 -0.767282 -1.126387
H 0.257776 -0.817834 1.106404
H 0.141093 -2.722479 0.611671
