12

N 2.299441 0.527549 0.328049
B 1.944001 -0.717091 0.862592
N -0.205106 -1.274690 -1.115595
B 0.433426 -1.692256 0.110320
H 0.354724 -0.758177 -1.795575
H 2.595139 -1.205141 1.700560
H 1.723104 -1.756793 -0.085136
H 1.709618 1.079982 -0.277929
H 3.148241 1.008579 0.608578
H -1.138852 -0.957238 -1.128302
H 0.531179 -0.800812 1.091527
H 0.037223 -2.631662 0.654308
